# ********************************************************************************
# *  Copyright: National ICT Australia, 2009, 2010                               *
# *  Developed at the ATP lab, Networked Systems research theme                  *
# *  Author(s): Yuriy Tselishchev                                                *
# *  This file is distributed under the terms in the attached LICENSE file.      *
# *  If you do not find this file, copies can be found by writing to:            *
# *                                                                              *
# *      NICTA, Locked Bag 9013, Alexandria, NSW 1435, Australia                 *
# *      Attention:  License Inquiry.                                            *
# *                                                                              *
# *******************************************************************************/

[General]

include ../Parameters/Castalia.ini

sim-time-limit = 1000s

include ../Parameters/SensorDevice/Accelerometer.ini

SN.physicalProcessName = "CarsPhysicalProcess"
SN.physicalProcess[*].car_interarrival = 5

SN.node[*].Communication.Radio.RadioParametersFile = "../Parameters/Radio/CC2420.txt"

SN.node[*].ApplicationName = "BridgeTest"
SN.node[0].Application.isSink = true
SN.node[*].Application.reportDestination = "SINK"
SN.node[0].Application.collectTraceInfo = true

SN.node[*].Communication.RoutingProtocolName = "MultipathRingsRouting"

SN.node[*].Communication.MAC.phyDataRate = 1024
SN.node[*].Communication.MAC.phyBitsPerSymbol = 2


# *******************************************************************************/
# **********************************THESIS***************************************/

SN.field_x = 100
SN.field_y = 10

SN.deployment = "[0]->center;[1..6]->3x2"
SN.numNodes = 7

#Sink node
#SN.node[0].xCoor = 45
#SN.node[0].yCoor = 5

#Sensors node
#SN.node[1].xCoor = 0
#SN.node[1].yCoor = 5

#SN.node[2].xCoor = 30
#SN.node[2].yCoor = 5

#SN.node[3].xCoor = 60
#SN.node[3].yCoor = 5

#SN.node[4].xCoor = 90
#SN.node[4].yCoor = 5

# Coordenadas de linea para Vehiculos en movimiento
SN.physicalProcess[0].point1_x_coord = 0
SN.physicalProcess[0].point1_y_coord = 5
SN.physicalProcess[0].point2_x_coord = 100
SN.physicalProcess[0].point2_y_coord = 5

[Config TMAC]
SN.node[*].Communication.MACProtocolName = "TMAC"

[Config SMAC]
SN.node[*].Communication.MACProtocolName = "TMAC"
SN.node[*].Communication.MAC.listenTimeout = 61
SN.node[*].Communication.MAC.disableTAextension = true
SN.node[*].Communication.MAC.conservativeTA = false
SN.node[*].Communication.MAC.collisionResolution = 0

[Config SlottedAloha]
SN.node[*].Communication.MACProtocolName = "TunableMAC"
SN.node[*].Communication.MAC.listenInterval = 10
SN.node[*].Communication.MAC.dutyCycle = 0.1
SN.node[*].Communication.MAC.beaconIntervalFraction = 1.0
SN.node[*].Communication.MAC.CSMApersistance = 0.0

[Config ZigBeeMAC]
SN.node[*].Communication.MACProtocolName = "StaticGTS802154"
SN.node[0].Communication.MAC.isFFD = true
SN.node[0].Communication.MAC.isPANCoordinator = true
#SN.node[*].Communication.MAC.phyDataRate = 1024
#SN.node[*].Communication.MAC.phyBitsPerSymbol = 2



# *******************************************************************************/

